[root]
type=Root
children=system
eventq_index=0
full_system=true
sim_quantum=1000000000
time_sync_enable=false
time_sync_period=100000000000
time_sync_spin_threshold=100000000

[system]
type=System
children=apicbridge atomicCpu bridge clk_domain cpu detailed_cpu dvfs_handler iobus iocache kvm_vm l3bus l3cache mem_cntrls0 mem_cntrls1 mem_cntrls2 mem_cntrls3 mem_cntrls4 mem_cntrls5 mem_cntrls6 mem_cntrls7 mem_cntrls8 membus pc workload
cache_line_size=64
eventq_index=0
exit_on_work_items=false
init_param=0
kvm_vm=system.kvm_vm
m5ops_base=4294901760
mem_mode=atomic_noncaching
mem_ranges=0:104857600 3221225472:3222274048 4294967296:38654705664
memories=system.mem_cntrls0.dram system.mem_cntrls1.dram system.mem_cntrls2.dram system.mem_cntrls3.dram system.mem_cntrls4.dram system.mem_cntrls5.dram system.mem_cntrls6.dram system.mem_cntrls7.dram system.mem_cntrls8.dram
mmap_using_noreserve=false
multi_thread=false
num_work_ids=16
readfile=/home/kparun/stack_persistence/output/linux/leela_s/128bytes/hw/run_leela_128_0_test
redirect_paths=
shadow_rom_ranges=
shared_backstore=
symbolfile=
thermal_components=
thermal_model=Null
work_begin_ckpt_count=0
work_begin_cpu_id_exit=-1
work_begin_exit_count=1
work_cpus_ckpt_count=0
work_end_ckpt_count=0
work_end_exit_count=1
work_item_id=-1
workload=system.workload
system_port=system.membus.cpu_side_ports[0]

[system.apicbridge]
type=Bridge
children=power_state
clk_domain=system.clk_domain
delay=50000
eventq_index=0
power_model=
power_state=system.apicbridge.power_state
ranges=11529215046068469760:11529215046068473855
req_size=16
resp_size=16
cpu_side_port=system.iobus.mem_side_ports[0]
mem_side_port=system.membus.cpu_side_ports[1]

[system.apicbridge.power_state]
type=PowerState
clk_gate_bins=20
clk_gate_max=1000000000000
clk_gate_min=1000
default_state=UNDEFINED
eventq_index=0
leaders=
possible_states=

[system.atomicCpu]
type=AtomicSimpleCPU
children=decoder isa mmu power_state tracer
branchPred=Null
checker=Null
clk_domain=system.clk_domain
cpu_id=0
decoder=system.atomicCpu.decoder
do_checkpoint_insts=true
do_statistics_insts=true
eventq_index=0
function_trace=false
function_trace_start=0
interrupts=
isa=system.atomicCpu.isa
max_insts_all_threads=0
max_insts_any_thread=0
mmu=system.atomicCpu.mmu
numThreads=1
power_gating_on_idle=false
power_model=
power_state=system.atomicCpu.power_state
progress_interval=0
pwr_gating_latency=300
simpoint_start_insts=
simulate_data_stalls=false
simulate_inst_stalls=false
socket_id=0
switched_out=true
syscallRetryLatency=10000
system=system
tracer=system.atomicCpu.tracer
width=1
workload=

[system.atomicCpu.decoder]
type=X86Decoder
eventq_index=0
isa=system.atomicCpu.isa

[system.atomicCpu.isa]
type=X86ISA
eventq_index=0
vendor_string=M5 Simulator

[system.atomicCpu.mmu]
type=X86MMU
children=dtb itb
dtb=system.atomicCpu.mmu.dtb
eventq_index=0
itb=system.atomicCpu.mmu.itb

[system.atomicCpu.mmu.dtb]
type=X86TLB
children=walker
entry_type=data
eventq_index=0
next_level=Null
size=64
system=system
walker=system.atomicCpu.mmu.dtb.walker

[system.atomicCpu.mmu.dtb.walker]
type=X86PagetableWalker
children=power_state
clk_domain=system.clk_domain
eventq_index=0
num_squash_per_cycle=4
power_model=
power_state=system.atomicCpu.mmu.dtb.walker.power_state
system=system

[system.atomicCpu.mmu.dtb.walker.power_state]
type=PowerState
clk_gate_bins=20
clk_gate_max=1000000000000
clk_gate_min=1000
default_state=UNDEFINED
eventq_index=0
leaders=
possible_states=

[system.atomicCpu.mmu.itb]
type=X86TLB
children=walker
entry_type=instruction
eventq_index=0
next_level=Null
size=64
system=system
walker=system.atomicCpu.mmu.itb.walker

[system.atomicCpu.mmu.itb.walker]
type=X86PagetableWalker
children=power_state
clk_domain=system.clk_domain
eventq_index=0
num_squash_per_cycle=4
power_model=
power_state=system.atomicCpu.mmu.itb.walker.power_state
system=system

[system.atomicCpu.mmu.itb.walker.power_state]
type=PowerState
clk_gate_bins=20
clk_gate_max=1000000000000
clk_gate_min=1000
default_state=UNDEFINED
eventq_index=0
leaders=
possible_states=

[system.atomicCpu.power_state]
type=PowerState
clk_gate_bins=20
clk_gate_max=1000000000000
clk_gate_min=1000
default_state=UNDEFINED
eventq_index=0
leaders=
possible_states=ON CLK_GATED OFF

[system.atomicCpu.tracer]
type=ExeTracer
eventq_index=0

[system.bridge]
type=Bridge
children=power_state
clk_domain=system.clk_domain
delay=50000
eventq_index=0
power_model=
power_state=system.bridge.power_state
ranges=3221225472:4294901760 9223372036854775808:11529215046068469759 13835058055282163712:18446744073709551615
req_size=16
resp_size=16
cpu_side_port=system.membus.mem_side_ports[0]
mem_side_port=system.iobus.cpu_side_ports[0]

[system.bridge.power_state]
type=PowerState
clk_gate_bins=20
clk_gate_max=1000000000000
clk_gate_min=1000
default_state=UNDEFINED
eventq_index=0
leaders=
possible_states=

[system.clk_domain]
type=SrcClockDomain
children=voltage_domain
clock=333
domain_id=-1
eventq_index=0
init_perf_level=0
voltage_domain=system.clk_domain.voltage_domain

[system.clk_domain.voltage_domain]
type=VoltageDomain
eventq_index=0
voltage=1.0

[system.cpu]
type=X86KvmCPU
children=dcache decoder icache interrupts isa l2bus l2cache mmu mmucache power_state tracer
alwaysSyncTC=false
checker=Null
clk_domain=system.clk_domain
cpu_id=0
decoder=system.cpu.decoder
do_checkpoint_insts=true
do_statistics_insts=true
eventq_index=1
function_trace=false
function_trace_start=0
hostFactor=1.0
hostFreq=500
interrupts=system.cpu.interrupts
isa=system.cpu.isa
max_insts_all_threads=0
max_insts_any_thread=0
mmu=system.cpu.mmu
numThreads=1
power_gating_on_idle=false
power_model=
power_state=system.cpu.power_state
progress_interval=0
pwr_gating_latency=300
simpoint_start_insts=
socket_id=0
switched_out=false
syscallRetryLatency=10000
system=system
tracer=system.cpu.tracer
useCoalescedMMIO=false
usePerfOverflow=false
useXSave=true
workload=
dcache_port=system.cpu.dcache.cpu_side
icache_port=system.cpu.icache.cpu_side

[system.cpu.dcache]
type=Cache
children=power_state replacement_policy tags
addr_ranges=0:18446744073709551615
assoc=8
clk_domain=system.clk_domain
clusivity=mostly_incl
compressor=Null
data_latency=2
demand_mshr_reserve=1
eventq_index=0
is_bypass_dirty=false
is_read_only=false
max_miss_count=0
move_contractions=true
mshrs=16
power_model=
power_state=system.cpu.dcache.power_state
prefetch_on_access=false
prefetch_on_pf_hit=false
prefetcher=Null
replace_expansions=true
replacement_policy=system.cpu.dcache.replacement_policy
response_latency=2
sequential_access=false
size=32768
system=system
tag_latency=1
tags=system.cpu.dcache.tags
tgts_per_mshr=20
warmup_percentage=0
write_allocator=Null
write_buffers=8
writeback_clean=true
cpu_side=system.cpu.dcache_port
mem_side=system.cpu.l2bus.cpu_side_ports[1]

[system.cpu.dcache.power_state]
type=PowerState
clk_gate_bins=20
clk_gate_max=1000000000000
clk_gate_min=1000
default_state=UNDEFINED
eventq_index=0
leaders=
possible_states=

[system.cpu.dcache.replacement_policy]
type=LRURP
eventq_index=0

[system.cpu.dcache.tags]
type=BaseSetAssoc
children=indexing_policy power_state
assoc=8
block_size=64
clk_domain=system.clk_domain
entry_size=64
eventq_index=0
indexing_policy=system.cpu.dcache.tags.indexing_policy
power_model=
power_state=system.cpu.dcache.tags.power_state
replacement_policy=system.cpu.dcache.replacement_policy
sequential_access=false
size=32768
system=system
tag_latency=1
warmup_percentage=0

[system.cpu.dcache.tags.indexing_policy]
type=SetAssociative
assoc=8
entry_size=64
eventq_index=0
size=32768

[system.cpu.dcache.tags.power_state]
type=PowerState
clk_gate_bins=20
clk_gate_max=1000000000000
clk_gate_min=1000
default_state=UNDEFINED
eventq_index=0
leaders=
possible_states=

[system.cpu.decoder]
type=X86Decoder
eventq_index=0
isa=system.cpu.isa

[system.cpu.icache]
type=Cache
children=power_state replacement_policy tags
addr_ranges=0:18446744073709551615
assoc=8
clk_domain=system.clk_domain
clusivity=mostly_incl
compressor=Null
data_latency=2
demand_mshr_reserve=1
eventq_index=0
is_bypass_dirty=false
is_read_only=false
max_miss_count=0
move_contractions=true
mshrs=8
power_model=
power_state=system.cpu.icache.power_state
prefetch_on_access=false
prefetch_on_pf_hit=false
prefetcher=Null
replace_expansions=true
replacement_policy=system.cpu.icache.replacement_policy
response_latency=2
sequential_access=false
size=32768
system=system
tag_latency=1
tags=system.cpu.icache.tags
tgts_per_mshr=20
warmup_percentage=0
write_allocator=Null
write_buffers=8
writeback_clean=true
cpu_side=system.cpu.icache_port
mem_side=system.cpu.l2bus.cpu_side_ports[0]

[system.cpu.icache.power_state]
type=PowerState
clk_gate_bins=20
clk_gate_max=1000000000000
clk_gate_min=1000
default_state=UNDEFINED
eventq_index=0
leaders=
possible_states=

[system.cpu.icache.replacement_policy]
type=LRURP
eventq_index=0

[system.cpu.icache.tags]
type=BaseSetAssoc
children=indexing_policy power_state
assoc=8
block_size=64
clk_domain=system.clk_domain
entry_size=64
eventq_index=0
indexing_policy=system.cpu.icache.tags.indexing_policy
power_model=
power_state=system.cpu.icache.tags.power_state
replacement_policy=system.cpu.icache.replacement_policy
sequential_access=false
size=32768
system=system
tag_latency=1
warmup_percentage=0

[system.cpu.icache.tags.indexing_policy]
type=SetAssociative
assoc=8
entry_size=64
eventq_index=0
size=32768

[system.cpu.icache.tags.power_state]
type=PowerState
clk_gate_bins=20
clk_gate_max=1000000000000
clk_gate_min=1000
default_state=UNDEFINED
eventq_index=0
leaders=
possible_states=

[system.cpu.interrupts]
type=X86LocalApic
children=clk_domain
clk_domain=system.cpu.interrupts.clk_domain
eventq_index=0
int_latency=1000
pio_latency=100000
system=system
int_requestor=system.membus.cpu_side_ports[4]
int_responder=system.membus.mem_side_ports[2]
pio=system.membus.mem_side_ports[1]

[system.cpu.interrupts.clk_domain]
type=DerivedClockDomain
clk_divider=16
clk_domain=system.clk_domain
eventq_index=0

[system.cpu.isa]
type=X86ISA
eventq_index=0
vendor_string=M5 Simulator

[system.cpu.l2bus]
type=CoherentXBar
children=power_state snoop_filter
clk_domain=system.clk_domain
eventq_index=0
forward_latency=0
frontend_latency=1
header_latency=1
max_outstanding_snoops=512
max_routing_table_size=512
point_of_coherency=false
point_of_unification=true
power_model=
power_state=system.cpu.l2bus.power_state
response_latency=1
snoop_filter=system.cpu.l2bus.snoop_filter
snoop_response_latency=1
system=system
use_default_range=false
width=32
cpu_side_ports=system.cpu.icache.mem_side system.cpu.dcache.mem_side system.cpu.mmucache.mem_side
mem_side_ports=system.cpu.l2cache.cpu_side

[system.cpu.l2bus.power_state]
type=PowerState
clk_gate_bins=20
clk_gate_max=1000000000000
clk_gate_min=1000
default_state=UNDEFINED
eventq_index=0
leaders=
possible_states=

[system.cpu.l2bus.snoop_filter]
type=SnoopFilter
eventq_index=0
lookup_latency=0
max_capacity=8388608
system=system

[system.cpu.l2cache]
type=Cache
children=power_state replacement_policy tags
addr_ranges=0:18446744073709551615
assoc=16
clk_domain=system.clk_domain
clusivity=mostly_incl
compressor=Null
data_latency=9
demand_mshr_reserve=1
eventq_index=0
is_bypass_dirty=false
is_read_only=false
max_miss_count=0
move_contractions=true
mshrs=32
power_model=
power_state=system.cpu.l2cache.power_state
prefetch_on_access=false
prefetch_on_pf_hit=false
prefetcher=Null
replace_expansions=true
replacement_policy=system.cpu.l2cache.replacement_policy
response_latency=9
sequential_access=false
size=524288
system=system
tag_latency=3
tags=system.cpu.l2cache.tags
tgts_per_mshr=12
warmup_percentage=0
write_allocator=Null
write_buffers=8
writeback_clean=true
cpu_side=system.cpu.l2bus.mem_side_ports[0]
mem_side=system.l3bus.cpu_side_ports[0]

[system.cpu.l2cache.power_state]
type=PowerState
clk_gate_bins=20
clk_gate_max=1000000000000
clk_gate_min=1000
default_state=UNDEFINED
eventq_index=0
leaders=
possible_states=

[system.cpu.l2cache.replacement_policy]
type=LRURP
eventq_index=0

[system.cpu.l2cache.tags]
type=BaseSetAssoc
children=indexing_policy power_state
assoc=16
block_size=64
clk_domain=system.clk_domain
entry_size=64
eventq_index=0
indexing_policy=system.cpu.l2cache.tags.indexing_policy
power_model=
power_state=system.cpu.l2cache.tags.power_state
replacement_policy=system.cpu.l2cache.replacement_policy
sequential_access=false
size=524288
system=system
tag_latency=3
warmup_percentage=0

[system.cpu.l2cache.tags.indexing_policy]
type=SetAssociative
assoc=16
entry_size=64
eventq_index=0
size=524288

[system.cpu.l2cache.tags.power_state]
type=PowerState
clk_gate_bins=20
clk_gate_max=1000000000000
clk_gate_min=1000
default_state=UNDEFINED
eventq_index=0
leaders=
possible_states=

[system.cpu.mmu]
type=X86MMU
children=dtb itb
dtb=system.cpu.mmu.dtb
eventq_index=0
itb=system.cpu.mmu.itb

[system.cpu.mmu.dtb]
type=X86TLB
children=walker
entry_type=data
eventq_index=0
next_level=Null
size=64
system=system
walker=system.cpu.mmu.dtb.walker

[system.cpu.mmu.dtb.walker]
type=X86PagetableWalker
children=power_state
clk_domain=system.clk_domain
eventq_index=0
num_squash_per_cycle=4
power_model=
power_state=system.cpu.mmu.dtb.walker.power_state
system=system
port=system.cpu.mmucache.mmubus.cpu_side_ports[1]

[system.cpu.mmu.dtb.walker.power_state]
type=PowerState
clk_gate_bins=20
clk_gate_max=1000000000000
clk_gate_min=1000
default_state=UNDEFINED
eventq_index=0
leaders=
possible_states=

[system.cpu.mmu.itb]
type=X86TLB
children=walker
entry_type=instruction
eventq_index=0
next_level=Null
size=64
system=system
walker=system.cpu.mmu.itb.walker

[system.cpu.mmu.itb.walker]
type=X86PagetableWalker
children=power_state
clk_domain=system.clk_domain
eventq_index=0
num_squash_per_cycle=4
power_model=
power_state=system.cpu.mmu.itb.walker.power_state
system=system
port=system.cpu.mmucache.mmubus.cpu_side_ports[0]

[system.cpu.mmu.itb.walker.power_state]
type=PowerState
clk_gate_bins=20
clk_gate_max=1000000000000
clk_gate_min=1000
default_state=UNDEFINED
eventq_index=0
leaders=
possible_states=

[system.cpu.mmucache]
type=Cache
children=mmubus power_state replacement_policy tags
addr_ranges=0:18446744073709551615
assoc=4
clk_domain=system.clk_domain
clusivity=mostly_incl
compressor=Null
data_latency=1
demand_mshr_reserve=1
eventq_index=0
is_bypass_dirty=false
is_read_only=false
max_miss_count=0
move_contractions=true
mshrs=20
power_model=
power_state=system.cpu.mmucache.power_state
prefetch_on_access=false
prefetch_on_pf_hit=false
prefetcher=Null
replace_expansions=true
replacement_policy=system.cpu.mmucache.replacement_policy
response_latency=1
sequential_access=false
size=8192
system=system
tag_latency=1
tags=system.cpu.mmucache.tags
tgts_per_mshr=12
warmup_percentage=0
write_allocator=Null
write_buffers=8
writeback_clean=true
cpu_side=system.cpu.mmucache.mmubus.mem_side_ports[0]
mem_side=system.cpu.l2bus.cpu_side_ports[2]

[system.cpu.mmucache.mmubus]
type=CoherentXBar
children=power_state snoop_filter
clk_domain=system.clk_domain
eventq_index=0
forward_latency=0
frontend_latency=1
header_latency=1
max_outstanding_snoops=512
max_routing_table_size=512
point_of_coherency=false
point_of_unification=true
power_model=
power_state=system.cpu.mmucache.mmubus.power_state
response_latency=1
snoop_filter=system.cpu.mmucache.mmubus.snoop_filter
snoop_response_latency=1
system=system
use_default_range=false
width=32
cpu_side_ports=system.cpu.mmu.itb.walker.port system.cpu.mmu.dtb.walker.port
mem_side_ports=system.cpu.mmucache.cpu_side

[system.cpu.mmucache.mmubus.power_state]
type=PowerState
clk_gate_bins=20
clk_gate_max=1000000000000
clk_gate_min=1000
default_state=UNDEFINED
eventq_index=0
leaders=
possible_states=

[system.cpu.mmucache.mmubus.snoop_filter]
type=SnoopFilter
eventq_index=0
lookup_latency=0
max_capacity=8388608
system=system

[system.cpu.mmucache.power_state]
type=PowerState
clk_gate_bins=20
clk_gate_max=1000000000000
clk_gate_min=1000
default_state=UNDEFINED
eventq_index=0
leaders=
possible_states=

[system.cpu.mmucache.replacement_policy]
type=LRURP
eventq_index=0

[system.cpu.mmucache.tags]
type=BaseSetAssoc
children=indexing_policy power_state
assoc=4
block_size=64
clk_domain=system.clk_domain
entry_size=64
eventq_index=0
indexing_policy=system.cpu.mmucache.tags.indexing_policy
power_model=
power_state=system.cpu.mmucache.tags.power_state
replacement_policy=system.cpu.mmucache.replacement_policy
sequential_access=false
size=8192
system=system
tag_latency=1
warmup_percentage=0

[system.cpu.mmucache.tags.indexing_policy]
type=SetAssociative
assoc=4
entry_size=64
eventq_index=0
size=8192

[system.cpu.mmucache.tags.power_state]
type=PowerState
clk_gate_bins=20
clk_gate_max=1000000000000
clk_gate_min=1000
default_state=UNDEFINED
eventq_index=0
leaders=
possible_states=

[system.cpu.power_state]
type=PowerState
clk_gate_bins=20
clk_gate_max=1000000000000
clk_gate_min=1000
default_state=UNDEFINED
eventq_index=0
leaders=
possible_states=ON CLK_GATED OFF

[system.cpu.tracer]
type=ExeTracer
eventq_index=0

[system.detailed_cpu]
type=TimingSimpleCPU
children=decoder isa mmu power_state tracer
branchPred=Null
checker=Null
clk_domain=system.clk_domain
cpu_id=0
decoder=system.detailed_cpu.decoder
do_checkpoint_insts=true
do_statistics_insts=true
eventq_index=0
function_trace=false
function_trace_start=0
interrupts=
isa=system.detailed_cpu.isa
max_insts_all_threads=0
max_insts_any_thread=0
mmu=system.detailed_cpu.mmu
numThreads=1
power_gating_on_idle=false
power_model=
power_state=system.detailed_cpu.power_state
progress_interval=0
pwr_gating_latency=300
simpoint_start_insts=
socket_id=0
switched_out=true
syscallRetryLatency=10000
system=system
tracer=system.detailed_cpu.tracer
workload=

[system.detailed_cpu.decoder]
type=X86Decoder
eventq_index=0
isa=system.detailed_cpu.isa

[system.detailed_cpu.isa]
type=X86ISA
eventq_index=0
vendor_string=M5 Simulator

[system.detailed_cpu.mmu]
type=X86MMU
children=dtb itb
dtb=system.detailed_cpu.mmu.dtb
eventq_index=0
itb=system.detailed_cpu.mmu.itb

[system.detailed_cpu.mmu.dtb]
type=X86TLB
children=walker
entry_type=data
eventq_index=0
next_level=Null
size=64
system=system
walker=system.detailed_cpu.mmu.dtb.walker

[system.detailed_cpu.mmu.dtb.walker]
type=X86PagetableWalker
children=power_state
clk_domain=system.clk_domain
eventq_index=0
num_squash_per_cycle=4
power_model=
power_state=system.detailed_cpu.mmu.dtb.walker.power_state
system=system

[system.detailed_cpu.mmu.dtb.walker.power_state]
type=PowerState
clk_gate_bins=20
clk_gate_max=1000000000000
clk_gate_min=1000
default_state=UNDEFINED
eventq_index=0
leaders=
possible_states=

[system.detailed_cpu.mmu.itb]
type=X86TLB
children=walker
entry_type=instruction
eventq_index=0
next_level=Null
size=64
system=system
walker=system.detailed_cpu.mmu.itb.walker

[system.detailed_cpu.mmu.itb.walker]
type=X86PagetableWalker
children=power_state
clk_domain=system.clk_domain
eventq_index=0
num_squash_per_cycle=4
power_model=
power_state=system.detailed_cpu.mmu.itb.walker.power_state
system=system

[system.detailed_cpu.mmu.itb.walker.power_state]
type=PowerState
clk_gate_bins=20
clk_gate_max=1000000000000
clk_gate_min=1000
default_state=UNDEFINED
eventq_index=0
leaders=
possible_states=

[system.detailed_cpu.power_state]
type=PowerState
clk_gate_bins=20
clk_gate_max=1000000000000
clk_gate_min=1000
default_state=UNDEFINED
eventq_index=0
leaders=
possible_states=ON CLK_GATED OFF

[system.detailed_cpu.tracer]
type=ExeTracer
eventq_index=0

[system.dvfs_handler]
type=DVFSHandler
domains=
enable=false
eventq_index=0
sys_clk_domain=system.clk_domain
transition_latency=100000000

[system.iobus]
type=NoncoherentXBar
children=power_state
clk_domain=system.clk_domain
eventq_index=0
forward_latency=1
frontend_latency=2
header_latency=1
power_model=
power_state=system.iobus.power_state
response_latency=2
use_default_range=false
width=16
cpu_side_ports=system.bridge.mem_side_port system.pc.south_bridge.ide.dma system.pc.south_bridge.io_apic.int_requestor
default=system.pc.default_bus.cpu_side_ports[0]
mem_side_ports=system.apicbridge.cpu_side_port system.pc.south_bridge.cmos.pio system.pc.south_bridge.dma1.pio system.pc.south_bridge.ide.pio system.pc.south_bridge.keyboard.pio system.pc.south_bridge.pic1.pio system.pc.south_bridge.pic2.pio system.pc.south_bridge.pit.pio system.pc.south_bridge.speaker.pio system.pc.south_bridge.io_apic.pio system.pc.com_1.pio system.pc.fake_com_2.pio system.pc.fake_com_3.pio system.pc.fake_com_4.pio system.pc.fake_floppy.pio system.pc.pci_host.pio system.iocache.cpu_side

[system.iobus.power_state]
type=PowerState
clk_gate_bins=20
clk_gate_max=1000000000000
clk_gate_min=1000
default_state=UNDEFINED
eventq_index=0
leaders=
possible_states=

[system.iocache]
type=Cache
children=power_state replacement_policy tags
addr_ranges=0:104857600 3221225472:3222274048 4294967296:38654705664
assoc=8
clk_domain=system.clk_domain
clusivity=mostly_incl
compressor=Null
data_latency=50
demand_mshr_reserve=1
eventq_index=0
is_bypass_dirty=false
is_read_only=false
max_miss_count=0
move_contractions=true
mshrs=20
power_model=
power_state=system.iocache.power_state
prefetch_on_access=false
prefetch_on_pf_hit=false
prefetcher=Null
replace_expansions=true
replacement_policy=system.iocache.replacement_policy
response_latency=50
sequential_access=false
size=1024
system=system
tag_latency=50
tags=system.iocache.tags
tgts_per_mshr=12
warmup_percentage=0
write_allocator=Null
write_buffers=8
writeback_clean=false
cpu_side=system.iobus.mem_side_ports[16]
mem_side=system.membus.cpu_side_ports[2]

[system.iocache.power_state]
type=PowerState
clk_gate_bins=20
clk_gate_max=1000000000000
clk_gate_min=1000
default_state=UNDEFINED
eventq_index=0
leaders=
possible_states=

[system.iocache.replacement_policy]
type=LRURP
eventq_index=0

[system.iocache.tags]
type=BaseSetAssoc
children=indexing_policy power_state
assoc=8
block_size=64
clk_domain=system.clk_domain
entry_size=64
eventq_index=0
indexing_policy=system.iocache.tags.indexing_policy
power_model=
power_state=system.iocache.tags.power_state
replacement_policy=system.iocache.replacement_policy
sequential_access=false
size=1024
system=system
tag_latency=50
warmup_percentage=0

[system.iocache.tags.indexing_policy]
type=SetAssociative
assoc=8
entry_size=64
eventq_index=0
size=1024

[system.iocache.tags.power_state]
type=PowerState
clk_gate_bins=20
clk_gate_max=1000000000000
clk_gate_min=1000
default_state=UNDEFINED
eventq_index=0
leaders=
possible_states=

[system.kvm_vm]
type=KvmVM
coalescedMMIO=
eventq_index=0

[system.l3bus]
type=CoherentXBar
children=power_state snoop_filter
clk_domain=system.clk_domain
eventq_index=0
forward_latency=0
frontend_latency=1
header_latency=1
max_outstanding_snoops=512
max_routing_table_size=512
point_of_coherency=false
point_of_unification=true
power_model=
power_state=system.l3bus.power_state
response_latency=1
snoop_filter=system.l3bus.snoop_filter
snoop_response_latency=1
system=system
use_default_range=false
width=64
cpu_side_ports=system.cpu.l2cache.mem_side
mem_side_ports=system.l3cache.cpu_side

[system.l3bus.power_state]
type=PowerState
clk_gate_bins=20
clk_gate_max=1000000000000
clk_gate_min=1000
default_state=UNDEFINED
eventq_index=0
leaders=
possible_states=

[system.l3bus.snoop_filter]
type=SnoopFilter
eventq_index=0
lookup_latency=1
max_capacity=33554432
system=system

[system.l3cache]
type=Cache
children=power_state replacement_policy tags
addr_ranges=0:18446744073709551615
assoc=16
clk_domain=system.clk_domain
clusivity=mostly_excl
compressor=Null
data_latency=15
demand_mshr_reserve=1
eventq_index=0
is_bypass_dirty=false
is_read_only=false
max_miss_count=0
move_contractions=true
mshrs=32
power_model=
power_state=system.l3cache.power_state
prefetch_on_access=false
prefetch_on_pf_hit=false
prefetcher=Null
replace_expansions=true
replacement_policy=system.l3cache.replacement_policy
response_latency=15
sequential_access=false
size=2097152
system=system
tag_latency=5
tags=system.l3cache.tags
tgts_per_mshr=12
warmup_percentage=0
write_allocator=Null
write_buffers=8
writeback_clean=false
cpu_side=system.l3bus.mem_side_ports[0]
mem_side=system.membus.cpu_side_ports[3]

[system.l3cache.power_state]
type=PowerState
clk_gate_bins=20
clk_gate_max=1000000000000
clk_gate_min=1000
default_state=UNDEFINED
eventq_index=0
leaders=
possible_states=

[system.l3cache.replacement_policy]
type=LRURP
eventq_index=0

[system.l3cache.tags]
type=BaseSetAssoc
children=indexing_policy power_state
assoc=16
block_size=64
clk_domain=system.clk_domain
entry_size=64
eventq_index=0
indexing_policy=system.l3cache.tags.indexing_policy
power_model=
power_state=system.l3cache.tags.power_state
replacement_policy=system.l3cache.replacement_policy
sequential_access=false
size=2097152
system=system
tag_latency=5
warmup_percentage=0

[system.l3cache.tags.indexing_policy]
type=SetAssociative
assoc=16
entry_size=64
eventq_index=0
size=2097152

[system.l3cache.tags.power_state]
type=PowerState
clk_gate_bins=20
clk_gate_max=1000000000000
clk_gate_min=1000
default_state=UNDEFINED
eventq_index=0
leaders=
possible_states=

[system.mem_cntrls0]
type=MemCtrl
children=dram power_state
clk_domain=system.clk_domain
command_window=10000
dram=system.mem_cntrls0.dram
eventq_index=0
mem_sched_policy=frfcfs
min_writes_per_switch=16
nvm=Null
power_model=
power_state=system.mem_cntrls0.power_state
qos_policy=Null
qos_priorities=1
qos_priority_escalation=false
qos_q_policy=fifo
qos_requestors=               
qos_syncro_scheduler=false
qos_turnaround_policy=Null
static_backend_latency=10000
static_frontend_latency=10000
system=system
write_high_thresh_perc=85
write_low_thresh_perc=50
port=system.membus.mem_side_ports[4]

[system.mem_cntrls0.dram]
type=DRAMInterface
children=power_state
IDD0=0.043000000000000003
IDD02=0.003
IDD2N=0.034
IDD2N2=0.0
IDD2P0=0.0
IDD2P02=0.0
IDD2P1=0.025
IDD2P12=0.0
IDD3N=0.038
IDD3N2=0.003
IDD3P0=0.0
IDD3P02=0.0
IDD3P1=0.032
IDD3P12=0.0
IDD4R=0.11
IDD4R2=0.0
IDD4W=0.10300000000000001
IDD4W2=0.0
IDD5=0.25
IDD52=0.0
IDD6=0.03
IDD62=0.0
VDD=1.2
VDD2=2.5
activation_limit=4
addr_mapping=RoRaBaCoCh
bank_groups_per_rank=4
banks_per_rank=16
beats_per_clock=2
burst_length=8
clk_domain=system.clk_domain
conf_table_reported=true
data_clock_sync=false
device_bus_width=4
device_rowbuffer_size=512
device_size=1073741824
devices_per_rank=16
dll=true
enable_dram_powerdown=false
eventq_index=0
image_file=
in_addr_map=true
kvm_map=true
max_accesses_per_row=16
null=false
page_policy=open_adaptive
power_model=
power_state=system.mem_cntrls0.dram.power_state
range=4294967296:38654705664:0:1048704:2097408:4194816
ranks_per_channel=2
read_buffer_size=64
tAAD=833
tBURST=3332
tBURST_MAX=3332
tBURST_MIN=3332
tCCD_L=5000
tCCD_L_WR=5000
tCK=833
tCL=14160
tCS=1666
tPPD=0
tRAS=32000
tRCD=14160
tREFI=7800000
tRFC=350000
tRP=14160
tRRD=3332
tRRD_L=4900
tRTP=7500
tRTW=1666
tWR=15000
tWTR=5000
tWTR_L=5000
tXAW=13328
tXP=6000
tXPDLL=0
tXS=340000
tXSDLL=0
two_cycle_activate=false
write_buffer_size=128

[system.mem_cntrls0.dram.power_state]
type=PowerState
clk_gate_bins=20
clk_gate_max=1000000000000
clk_gate_min=1000
default_state=UNDEFINED
eventq_index=0
leaders=
possible_states=

[system.mem_cntrls0.power_state]
type=PowerState
clk_gate_bins=20
clk_gate_max=1000000000000
clk_gate_min=1000
default_state=UNDEFINED
eventq_index=0
leaders=
possible_states=

[system.mem_cntrls1]
type=MemCtrl
children=dram power_state
clk_domain=system.clk_domain
command_window=10000
dram=system.mem_cntrls1.dram
eventq_index=0
mem_sched_policy=frfcfs
min_writes_per_switch=16
nvm=Null
power_model=
power_state=system.mem_cntrls1.power_state
qos_policy=Null
qos_priorities=1
qos_priority_escalation=false
qos_q_policy=fifo
qos_requestors=               
qos_syncro_scheduler=false
qos_turnaround_policy=Null
static_backend_latency=10000
static_frontend_latency=10000
system=system
write_high_thresh_perc=85
write_low_thresh_perc=50
port=system.membus.mem_side_ports[5]

[system.mem_cntrls1.dram]
type=DRAMInterface
children=power_state
IDD0=0.043000000000000003
IDD02=0.003
IDD2N=0.034
IDD2N2=0.0
IDD2P0=0.0
IDD2P02=0.0
IDD2P1=0.025
IDD2P12=0.0
IDD3N=0.038
IDD3N2=0.003
IDD3P0=0.0
IDD3P02=0.0
IDD3P1=0.032
IDD3P12=0.0
IDD4R=0.11
IDD4R2=0.0
IDD4W=0.10300000000000001
IDD4W2=0.0
IDD5=0.25
IDD52=0.0
IDD6=0.03
IDD62=0.0
VDD=1.2
VDD2=2.5
activation_limit=4
addr_mapping=RoRaBaCoCh
bank_groups_per_rank=4
banks_per_rank=16
beats_per_clock=2
burst_length=8
clk_domain=system.clk_domain
conf_table_reported=true
data_clock_sync=false
device_bus_width=4
device_rowbuffer_size=512
device_size=1073741824
devices_per_rank=16
dll=true
enable_dram_powerdown=false
eventq_index=0
image_file=
in_addr_map=true
kvm_map=true
max_accesses_per_row=16
null=false
page_policy=open_adaptive
power_model=
power_state=system.mem_cntrls1.dram.power_state
range=4294967296:38654705664:1:1048704:2097408:4194816
ranks_per_channel=2
read_buffer_size=64
tAAD=833
tBURST=3332
tBURST_MAX=3332
tBURST_MIN=3332
tCCD_L=5000
tCCD_L_WR=5000
tCK=833
tCL=14160
tCS=1666
tPPD=0
tRAS=32000
tRCD=14160
tREFI=7800000
tRFC=350000
tRP=14160
tRRD=3332
tRRD_L=4900
tRTP=7500
tRTW=1666
tWR=15000
tWTR=5000
tWTR_L=5000
tXAW=13328
tXP=6000
tXPDLL=0
tXS=340000
tXSDLL=0
two_cycle_activate=false
write_buffer_size=128

[system.mem_cntrls1.dram.power_state]
type=PowerState
clk_gate_bins=20
clk_gate_max=1000000000000
clk_gate_min=1000
default_state=UNDEFINED
eventq_index=0
leaders=
possible_states=

[system.mem_cntrls1.power_state]
type=PowerState
clk_gate_bins=20
clk_gate_max=1000000000000
clk_gate_min=1000
default_state=UNDEFINED
eventq_index=0
leaders=
possible_states=

[system.mem_cntrls2]
type=MemCtrl
children=dram power_state
clk_domain=system.clk_domain
command_window=10000
dram=system.mem_cntrls2.dram
eventq_index=0
mem_sched_policy=frfcfs
min_writes_per_switch=16
nvm=Null
power_model=
power_state=system.mem_cntrls2.power_state
qos_policy=Null
qos_priorities=1
qos_priority_escalation=false
qos_q_policy=fifo